* 180nm NMOS/PMOS Model Card for Ngspice/PySpice
* Save this file as "180nm_bulk.lib"

.model nmos nmos level=49
+ version = 3.3.0    tnom    = 27.0     tox     = 4.0e-9
+ xj      = 1.5e-7   nch     = 1.7e17   vth0    = 0.4
+ k1      = 0.5      k2      = 0.0      k3      = 80.0
+ k3b     = 0.0      w0      = 1.0e-6   nlx     = 1.0e-7
+ dvt0w   = 0.0      dvt1w   = 0.0      dvt2w   = 0.0
+ dvt0    = 2.2      dvt1    = 0.53     dvt2    = -0.032
+ u0      = 350.0    ua      = 2.25e-9  ub      = 5.87e-19
+ uc      = -4.65e-11 vsat    = 8.0e4    a0      = 1.0
+ ags     = 0.0      b0      = 0.0      b1      = 0.0
+ keta    = -0.047   a1      = 0.0      a2      = 1.0
+ rdsw    = 150.0    prwg    = 0.0      prwb    = 0.0
+ wr      = 1.0      wint    = 1.0e-7   lint    = 1.0e-8
+ dwg     = 0.0      dwb     = 0.0      voff    = -0.08
+ nfactor = 1.0      cit     = 0.0      cdsc    = 2.4e-4
+ cdscd   = 0.0      cdscb   = 0.0      eta0    = 0.08
+ etab    = -0.07    dsub    = 0.56     pclm    = 1.3
+ pdiblc1 = 0.39     pdiblc2 = 0.0086   pdiblcb = 0.0
+ drout   = 0.56     pscbe1  = 4.24e8   pscbe2  = 1.0e-5
+ pvag    = 0.0      delta   = 0.01     ngate   = 0
+ alpha0  = 0.0      alpha1  = 0.0      beta0   = 30.0
+ cj      = 1.0e-3   mj      = 0.5      pb      = 0.9
+ cjsw    = 5.0e-10  mjsw    = 0.33     pbsw    = 0.9
+ cgdo    = 2.0e-10  cgso    = 2.0e-10  cgbo    = 1.0e-10
+ capmod  = 2        xpart   = 0.5      cf      = 0.0

.model pmos pmos level=49
+ version = 3.3.0    tnom    = 27.0     tox     = 4.0e-9
+ xj      = 1.5e-7   nch     = 1.7e17   vth0    = -0.4
+ k1      = 0.5      k2      = 0.0      k3      = 80.0
+ k3b     = 0.0      w0      = 1.0e-6   nlx     = 1.0e-7
+ dvt0w   = 0.0      dvt1w   = 0.0      dvt2w   = 0.0
+ dvt0    = 2.2      dvt1    = 0.53     dvt2    = -0.032
+ u0      = 100.0    ua      = 2.25e-9  ub      = 5.87e-19
+ uc      = -4.65e-11 vsat    = 8.0e4    a0      = 1.0
+ ags     = 0.0      b0      = 0.0      b1      = 0.0
+ keta    = -0.047   a1      = 0.0      a2      = 1.0
+ rdsw    = 150.0    prwg    = 0.0      prwb    = 0.0
+ wr      = 1.0      wint    = 1.0e-7   lint    = 1.0e-8
+ dwg     = 0.0      dwb     = 0.0      voff    = -0.08
+ nfactor = 1.0      cit     = 0.0      cdsc    = 2.4e-4
+ cdscd   = 0.0      cdscb   = 0.0      eta0    = 0.08
+ etab    = -0.07    dsub    = 0.56     pclm    = 1.3
+ pdiblc1 = 0.39     pdiblc2 = 0.0086   pdiblcb = 0.0
+ drout   = 0.56     pscbe1  = 4.24e8   pscbe2  = 1.0e-5
+ pvag    = 0.0      delta   = 0.01     ngate   = 0
+ alpha0  = 0.0      alpha1  = 0.0      beta0   = 30.0
+ cj      = 1.0e-3   mj      = 0.5      pb      = 0.9
+ cjsw    = 5.0e-10  mjsw    = 0.33     pbsw    = 0.9
+ cgdo    = 2.0e-10  cgso    = 2.0e-10  cgbo    = 1.0e-10
+ capmod  = 2        xpart   = 0.5      cf      = 0.0